<configuration>
  <input>
    <net-file value="Kuzminki.net.xml" />
    <route-files value="Kuzminki.rou.xml" />
    <additional-files value="Kuzminki.rerouter.xml" />
  </input>
</configuration>