<?xml version="1.0" encoding="UTF-8"?>

<!-- generated on 2022-04-29 08:59:01 by Eclipse SUMO netedit Version 1.12.0
<configuration xmlns:xsi="http://www.w3.org/2001/XMLSchema-instance" xsi:noNamespaceSchemaLocation="http://sumo.dlr.de/xsd/netconvertConfiguration.xsd">

    <input>
        <sumo-net-file value="/Users/ivansalenek/Documents/Учёба/SUMO/Kuzminki/simulation/Kuzminki.net.xml"/>
    </input>

    <output>
        <output-file value="/Users/ivansalenek/Documents/Учёба/SUMO/Kuzminki/simulation/Kuzminki.net.xml"/>
    </output>

    <processing>
        <geometry.min-radius.fix.railways value="false"/>
        <geometry.max-grade.fix value="false"/>
        <offset.disable-normalization value="true"/>
        <lefthand value="false"/>
    </processing>

    <junctions>
        <no-turnarounds value="true"/>
        <junctions.corner-detail value="5"/>
        <junctions.limit-turn-speed value="5.5"/>
        <rectangular-lane-cut value="false"/>
    </junctions>

    <pedestrian>
        <walkingareas value="false"/>
    </pedestrian>

    <report>
        <aggregate-warnings value="5"/>
    </report>

</configuration>
-->

<net version="1.9" junctionCornerDetail="5" limitTurnSpeed="5.50" xmlns:xsi="http://www.w3.org/2001/XMLSchema-instance" xsi:noNamespaceSchemaLocation="http://sumo.dlr.de/xsd/net_file.xsd">

    <location netOffset="-421557.51,-6173410.05" convBoundary="65.45,14.83,2218.08,1111.27" origBoundary="37.728612,55.699966,37.791475,55.714224" projParameter="+proj=utm +zone=37 +ellps=WGS84 +datum=WGS84 +units=m +no_defs"/>

    <edge id=":1042570013_0" function="internal">
        <lane id=":1042570013_0_0" index="0" disallow="tram rail_urban rail rail_electric rail_fast ship" speed="16.67" length="0.30" shape="951.69,593.04 951.39,593.12"/>
        <lane id=":1042570013_0_1" index="1" disallow="tram rail_urban rail rail_electric rail_fast ship" speed="16.67" length="0.30" shape="950.88,589.94 950.60,590.02"/>
    </edge>
    <edge id=":1042570035_0" function="internal">
        <lane id=":1042570035_0_0" index="0" disallow="tram rail_urban rail rail_electric rail_fast ship" speed="22.22" length="0.30" shape="820.52,645.80 820.45,645.53"/>
        <lane id=":1042570035_0_1" index="1" disallow="tram rail_urban rail rail_electric rail_fast ship" speed="22.22" length="0.30" shape="823.62,645.01 823.54,644.71"/>
    </edge>
    <edge id=":1042570081_0" function="internal">
        <lane id=":1042570081_0_0" index="0" disallow="tram rail_urban rail rail_electric rail_fast ship" speed="22.22" length="0.25" shape="841.69,739.04 841.62,738.74"/>
        <lane id=":1042570081_0_1" index="1" disallow="tram rail_urban rail rail_electric rail_fast ship" speed="22.22" length="0.25" shape="844.79,738.27 844.75,738.07"/>
    </edge>
    <edge id=":1338181092_0" function="internal">
        <lane id=":1338181092_0_0" index="0" disallow="tram rail_urban rail rail_electric rail_fast ship" speed="22.22" length="0.27" shape="757.96,406.73 757.88,406.40"/>
        <lane id=":1338181092_0_1" index="1" disallow="tram rail_urban rail rail_electric rail_fast ship" speed="22.22" length="0.27" shape="761.05,405.91 761.01,405.72"/>
    </edge>
    <edge id=":1338181098_0" function="internal">
        <lane id=":1338181098_0_0" index="0" disallow="tram rail_urban rail rail_electric rail_fast ship" speed="22.22" length="0.30" shape="755.84,322.54 755.86,322.23"/>
        <lane id=":1338181098_0_1" index="1" disallow="tram rail_urban rail rail_electric rail_fast ship" speed="22.22" length="0.30" shape="759.04,322.72 759.06,322.43"/>
    </edge>
    <edge id=":1436321852_0" function="internal">
        <lane id=":1436321852_0_0" index="0" disallow="tram rail_urban rail rail_electric rail_fast ship" speed="16.67" length="0.29" shape="994.15,690.42 994.21,690.67"/>
        <lane id=":1436321852_0_1" index="1" disallow="tram rail_urban rail rail_electric rail_fast ship" speed="16.67" length="0.29" shape="991.03,691.14 991.10,691.45"/>
    </edge>
    <edge id=":1436321866_0" function="internal">
        <lane id=":1436321866_0_0" index="0" disallow="tram rail_urban rail rail_electric rail_fast ship" speed="16.67" length="0.29" shape="1014.79,772.45 1014.87,772.75"/>
        <lane id=":1436321866_0_1" index="1" disallow="tram rail_urban rail rail_electric rail_fast ship" speed="16.67" length="0.29" shape="1011.69,773.25 1011.76,773.51"/>
    </edge>
    <edge id=":1568303770_0" function="internal">
        <lane id=":1568303770_0_0" index="0" disallow="tram rail_urban rail rail_electric rail_fast ship" speed="22.22" length="0.30" shape="786.62,514.46 786.55,514.17"/>
        <lane id=":1568303770_0_1" index="1" disallow="tram rail_urban rail rail_electric rail_fast ship" speed="22.22" length="0.30" shape="789.71,513.63 789.64,513.34"/>
    </edge>
    <edge id=":1568311476_0" function="internal">
        <lane id=":1568311476_0_0" index="0" disallow="tram rail_urban rail rail_electric rail_fast ship" speed="16.67" length="0.30" shape="930.02,427.52 930.10,427.80"/>
        <lane id=":1568311476_0_1" index="1" disallow="tram rail_urban rail rail_electric rail_fast ship" speed="16.67" length="0.30" shape="926.92,428.31 927.00,428.61"/>
    </edge>
    <edge id=":1568311485_0" function="internal">
        <lane id=":1568311485_0_0" index="0" disallow="tram rail_urban rail rail_electric rail_fast ship" speed="16.67" length="0.10" shape="909.88,348.31 909.88,348.31"/>
        <lane id=":1568311485_0_1" index="1" disallow="tram rail_urban rail rail_electric rail_fast ship" speed="16.67" length="0.10" shape="906.78,349.09 906.78,349.09"/>
    </edge>
    <edge id=":1706456381_0" function="internal">
        <lane id=":1706456381_0_0" index="0" allow="taxi bus" speed="16.67" length="0.30" shape="1046.87,544.80 1046.58,544.87"/>
        <lane id=":1706456381_0_1" index="1" disallow="tram rail_urban rail rail_electric rail_fast ship" speed="16.67" length="0.30" shape="1046.09,541.70 1045.80,541.77"/>
        <lane id=":1706456381_0_2" index="2" disallow="tram rail_urban rail rail_electric rail_fast ship" speed="16.67" length="0.30" shape="1045.31,538.59 1045.01,538.67"/>
        <lane id=":1706456381_0_3" index="3" disallow="tram rail_urban rail rail_electric rail_fast ship" speed="16.67" length="0.30" shape="1044.52,535.49 1044.23,535.56"/>
    </edge>
    <edge id=":1706456382_0" function="internal">
        <lane id=":1706456382_0_0" index="0" disallow="tram rail_urban rail rail_electric rail_fast ship" speed="16.67" length="0.30" shape="750.78,596.50 751.05,596.43"/>
        <lane id=":1706456382_0_1" index="1" disallow="tram rail_urban rail rail_electric rail_fast ship" speed="16.67" length="0.30" shape="751.56,599.60 751.84,599.53"/>
        <lane id=":1706456382_0_2" index="2" disallow="tram rail_urban rail rail_electric rail_fast ship" speed="16.67" length="0.30" shape="752.33,602.71 752.63,602.63"/>
        <lane id=":1706456382_0_3" index="3" disallow="tram rail_urban rail rail_electric rail_fast ship" speed="16.67" length="0.30" shape="753.11,605.81 753.42,605.73"/>
    </edge>
    <edge id=":2295521244_0" function="internal">
        <lane id=":2295521244_0_0" index="0" disallow="tram rail_urban rail rail_electric rail_fast ship" speed="22.22" length="0.29" shape="796.22,550.03 796.15,549.77"/>
        <lane id=":2295521244_0_1" index="1" disallow="tram rail_urban rail rail_electric rail_fast ship" speed="22.22" length="0.29" shape="799.32,549.23 799.24,548.93"/>
    </edge>
    <edge id=":2295521246_0" function="internal">
        <lane id=":2295521246_0_0" index="0" disallow="tram rail_urban rail rail_electric rail_fast ship" speed="16.67" length="0.28" shape="952.72,509.02 952.81,509.35"/>
        <lane id=":2295521246_0_1" index="1" disallow="tram rail_urban rail rail_electric rail_fast ship" speed="16.67" length="0.28" shape="949.63,509.82 949.69,510.08"/>
        <lane id=":2295521246_0_2" index="2" disallow="tram rail_urban rail rail_electric rail_fast ship" speed="16.67" length="0.28" shape="946.53,510.62 946.58,510.82"/>
    </edge>
    <edge id=":2295521252_0" function="internal">
        <lane id=":2295521252_0_0" index="0" disallow="tram rail_urban rail rail_electric rail_fast ship" speed="22.22" length="0.56" shape="816.84,631.93 816.94,632.41"/>
        <lane id=":2295521252_0_1" index="1" disallow="tram rail_urban rail rail_electric rail_fast ship" speed="22.22" length="0.56" shape="819.94,631.11 820.07,631.72"/>
    </edge>
    <edge id=":2295521255_0" function="internal">
        <lane id=":2295521255_0_0" index="0" disallow="tram rail_urban rail rail_electric rail_fast ship" speed="22.22" length="0.24" shape="828.30,676.59 828.26,676.41"/>
        <lane id=":2295521255_0_1" index="1" disallow="tram rail_urban rail rail_electric rail_fast ship" speed="22.22" length="0.24" shape="831.43,675.92 831.36,675.63"/>
    </edge>
    <edge id=":2295521262_0" function="internal">
        <lane id=":2295521262_0_0" index="0" disallow="tram rail_urban rail rail_electric rail_fast ship" speed="16.67" length="0.29" shape="973.67,602.89 973.73,603.16"/>
        <lane id=":2295521262_0_1" index="1" disallow="tram rail_urban rail rail_electric rail_fast ship" speed="16.67" length="0.29" shape="970.55,603.58 970.62,603.89"/>
    </edge>
    <edge id=":252999884_0" function="internal">
        <lane id=":252999884_0_0" index="0" disallow="tram rail_urban rail rail_electric rail_fast ship" speed="6.90" length="10.31" shape="960.25,539.34 961.29,541.63 963.02,543.00 965.43,543.48 968.53,543.04"/>
    </edge>
    <edge id=":252999884_1" function="internal">
        <lane id=":252999884_1_0" index="0" disallow="tram rail_urban rail rail_electric rail_fast ship" speed="22.22" length="16.10" shape="960.25,539.34 961.67,543.89 963.00,546.89 964.32,549.90 965.70,554.46"/>
    </edge>
    <edge id=":252999884_2" function="internal">
        <lane id=":252999884_2_0" index="0" disallow="tram rail_urban rail rail_electric rail_fast ship" speed="7.65" length="12.90" shape="960.25,539.34 961.64,542.98 963.61,545.33 966.17,546.38 969.33,546.14"/>
        <lane id=":252999884_2_1" index="1" disallow="tram rail_urban rail rail_electric rail_fast ship" speed="8.37" length="15.66" shape="960.25,539.34 961.98,544.34 964.21,547.66 966.92,549.29 970.13,549.24"/>
    </edge>
    <edge id=":252999884_4" function="internal">
        <lane id=":252999884_4_0" index="0" disallow="tram rail_urban rail rail_electric rail_fast ship" speed="22.22" length="16.04" shape="957.15,540.13 958.57,544.67 959.90,547.67 961.21,550.67 962.59,555.22"/>
        <lane id=":252999884_4_1" index="1" disallow="tram rail_urban rail rail_electric rail_fast ship" speed="22.22" length="16.04" shape="954.05,540.92 955.46,545.45 956.79,548.45 958.11,551.44 959.49,555.98"/>
        <lane id=":252999884_4_2" index="2" disallow="tram rail_urban rail rail_electric rail_fast ship" speed="22.22" length="16.04" shape="954.05,540.92 954.98,545.57 955.24,548.83 955.49,552.09 956.38,556.75"/>
    </edge>
    <edge id=":252999884_7" function="internal">
        <lane id=":252999884_7_0" index="0" disallow="tram rail_urban rail rail_electric rail_fast ship" speed="16.67" length="20.70" shape="948.52,548.03 968.53,543.04"/>
        <lane id=":252999884_7_1" index="1" disallow="tram rail_urban rail rail_electric rail_fast ship" speed="16.67" length="20.70" shape="949.27,551.14 969.33,546.14"/>
        <lane id=":252999884_7_2" index="2" disallow="tram rail_urban rail rail_electric rail_fast ship" speed="16.67" length="20.70" shape="950.02,554.25 970.13,549.24"/>
        <lane id=":252999884_7_3" index="3" disallow="tram rail_urban rail rail_electric rail_fast ship" speed="16.67" length="20.70" shape="950.77,557.37 970.93,552.34"/>
    </edge>
    <edge id=":252999884_11" function="internal">
        <lane id=":252999884_11_0" index="0" disallow="tram rail_urban rail rail_electric rail_fast ship" speed="6.48" length="8.91" shape="950.77,557.37 952.51,556.91 955.40,556.22 958.16,555.76 959.49,555.98"/>
        <lane id=":252999884_11_1" index="1" disallow="tram rail_urban rail rail_electric rail_fast ship" speed="5.36" length="5.78" shape="950.77,557.37 952.02,557.03 953.85,556.60 955.54,556.40 956.38,556.75"/>
    </edge>
    <edge id=":2711117661_0" function="internal">
        <lane id=":2711117661_0_0" index="0" disallow="tram rail_urban rail rail_electric rail_fast ship" speed="22.22" length="0.29" shape="741.38,1071.64 741.51,1071.35"/>
        <lane id=":2711117661_0_1" index="1" disallow="tram rail_urban rail rail_electric rail_fast ship" speed="22.22" length="0.29" shape="744.32,1072.89 744.43,1072.64"/>
    </edge>
    <edge id=":300716777_0" function="internal">
        <lane id=":300716777_0_0" index="0" disallow="tram rail_urban rail rail_electric rail_fast ship" speed="22.22" length="0.50" shape="852.31,821.19 852.34,821.12 852.36,821.07 852.37,821.02 852.39,820.95"/>
        <lane id=":300716777_0_1" index="1" disallow="tram rail_urban rail rail_electric rail_fast ship" speed="22.22" length="0.50" shape="855.20,822.55 855.30,822.34 855.35,822.20 855.40,822.06 855.47,821.85"/>
    </edge>
    <edge id=":300716780_0" function="internal">
        <lane id=":300716780_0_0" index="0" disallow="tram rail_urban rail rail_electric rail_fast ship" speed="22.22" length="0.95" shape="855.60,809.92 855.64,809.79 855.66,809.69 855.66,809.60 855.66,809.45"/>
        <lane id=":300716780_0_1" index="1" disallow="tram rail_urban rail rail_electric rail_fast ship" speed="15.01" length="0.95" shape="858.67,810.82 858.79,810.41 858.85,810.12 858.87,809.83 858.86,809.41"/>
    </edge>
    <edge id=":300716782_0" function="internal">
        <lane id=":300716782_0_0" index="0" disallow="tram rail_urban rail rail_electric rail_fast ship" speed="7.31" length="11.74" shape="808.13,609.40 806.86,605.74 805.18,603.33 803.07,602.16 800.55,602.24"/>
        <lane id=":300716782_0_1" index="1" disallow="tram rail_urban rail rail_electric rail_fast ship" speed="8.08" length="14.60" shape="808.13,609.40 806.52,604.38 804.59,601.00 802.34,599.25 799.76,599.14"/>
    </edge>
    <edge id=":300716782_2" function="internal">
        <lane id=":300716782_2_0" index="0" disallow="tram rail_urban rail rail_electric rail_fast ship" speed="22.22" length="16.17" shape="811.23,608.63 809.84,604.04 808.53,601.01 807.22,597.98 805.85,593.39"/>
        <lane id=":300716782_2_1" index="1" disallow="tram rail_urban rail rail_electric rail_fast ship" speed="22.22" length="16.17" shape="814.34,607.86 812.95,603.28 811.64,600.25 810.33,597.23 808.96,592.64"/>
        <lane id=":300716782_2_2" index="2" disallow="tram rail_urban rail rail_electric rail_fast ship" speed="22.22" length="16.17" shape="817.45,607.09 816.06,602.52 814.74,599.50 813.44,596.47 812.07,591.89"/>
    </edge>
    <edge id=":300716782_5" function="internal">
        <lane id=":300716782_5_0" index="0" allow="taxi bus" speed="16.67" length="20.88" shape="821.54,600.30 801.34,605.34"/>
        <lane id=":300716782_5_1" index="1" disallow="tram rail_urban rail rail_electric rail_fast ship" speed="16.67" length="20.88" shape="820.79,597.19 800.55,602.24"/>
        <lane id=":300716782_5_2" index="2" disallow="tram rail_urban rail rail_electric rail_fast ship" speed="16.67" length="20.88" shape="820.03,594.08 799.76,599.14"/>
        <lane id=":300716782_5_3" index="3" disallow="tram rail_urban rail rail_electric rail_fast ship" speed="16.67" length="20.88" shape="819.28,590.97 798.97,596.04"/>
    </edge>
    <edge id=":300716785_0" function="internal">
        <lane id=":300716785_0_0" index="0" disallow="tram rail_urban rail rail_electric rail_fast ship" speed="22.22" length="16.16" shape="805.80,593.20 803.36,577.26"/>
        <lane id=":300716785_0_1" index="1" disallow="tram rail_urban rail rail_electric rail_fast ship" speed="22.22" length="16.16" shape="808.91,592.45 806.45,576.44"/>
    </edge>
    <edge id=":300716785_2" function="internal">
        <lane id=":300716785_2_0" index="0" disallow="tram rail_urban rail rail_electric rail_fast ship" speed="8.35" length="15.57" shape="808.91,592.45 808.37,587.86 809.21,584.29 811.42,581.74 815.02,580.20"/>
        <lane id=":300716785_2_1" index="1" disallow="tram rail_urban rail rail_electric rail_fast ship" speed="7.68" length="12.99" shape="808.91,592.45 808.70,589.22 809.77,586.63 812.13,584.66 815.76,583.31"/>
        <lane id=":300716785_2_2" index="2" disallow="tram rail_urban rail rail_electric rail_fast ship" speed="7.01" length="10.66" shape="808.91,592.45 809.03,590.58 810.33,588.96 812.83,587.57 816.51,586.42"/>
        <lane id=":300716785_2_3" index="3" disallow="tram rail_urban rail rail_electric rail_fast ship" speed="5.37" length="5.81" shape="812.02,591.69 812.61,590.98 814.19,590.34 816.00,589.83 817.26,589.53"/>
    </edge>
    <edge id=":300716785_6" function="internal">
        <lane id=":300716785_6_0" index="0" disallow="tram rail_urban rail rail_electric rail_fast ship" speed="16.67" length="17.69" shape="797.78,584.48 815.02,580.20"/>
        <lane id=":300716785_6_1" index="1" disallow="tram rail_urban rail rail_electric rail_fast ship" speed="16.67" length="17.69" shape="798.58,587.58 815.76,583.31"/>
        <lane id=":300716785_6_2" index="2" disallow="tram rail_urban rail rail_electric rail_fast ship" speed="16.67" length="17.69" shape="799.37,590.68 816.51,586.42"/>
        <lane id=":300716785_6_3" index="3" disallow="tram rail_urban rail rail_electric rail_fast ship" speed="16.67" length="17.69" shape="800.16,593.78 817.26,589.53"/>
    </edge>
    <edge id=":305641859_0" function="internal">
        <lane id=":305641859_0_0" index="0" disallow="tram rail_urban rail rail_electric rail_fast ship" speed="22.22" length="14.45" shape="800.35,565.93 796.70,551.94"/>
        <lane id=":305641859_0_1" index="1" disallow="tram rail_urban rail rail_electric rail_fast ship" speed="22.22" length="14.45" shape="803.44,565.11 799.81,551.15"/>
    </edge>
    <edge id=":305641859_2" function="internal">
        <lane id=":305641859_2_0" index="0" disallow="tram rail_urban rail rail_electric rail_fast ship" speed="7.30" length="11.75" shape="803.44,565.11 802.80,561.30 803.12,558.37 804.41,556.34 806.66,555.20"/>
        <lane id=":305641859_2_1" index="1" disallow="tram rail_urban rail rail_electric rail_fast ship" speed="6.48" length="9.03" shape="803.44,565.11 803.15,562.65 803.72,560.70 805.16,559.25 807.45,558.30"/>
    </edge>
    <edge id=":305641859_4" function="internal">
        <lane id=":305641859_4_0" index="0" disallow="tram rail_urban rail rail_electric rail_fast ship" speed="6.50" length="9.03" shape="792.66,558.74 794.95,557.80 796.39,556.36 796.97,554.40 796.70,551.94"/>
    </edge>
    <edge id=":305641859_5" function="internal">
        <lane id=":305641859_5_0" index="0" disallow="tram rail_urban rail rail_electric rail_fast ship" speed="22.22" length="14.45" shape="792.66,558.74 806.66,555.20"/>
        <lane id=":305641859_5_1" index="1" disallow="tram rail_urban rail rail_electric rail_fast ship" speed="22.22" length="14.45" shape="793.44,561.84 807.45,558.30"/>
    </edge>
    <edge id=":305641880_0" function="internal">
        <lane id=":305641880_0_0" index="0" disallow="tram rail_urban rail rail_electric rail_fast ship" speed="6.47" length="9.03" shape="953.42,511.97 954.33,514.28 955.75,515.74 957.70,516.34 960.16,516.08"/>
    </edge>
    <edge id=":305641880_1" function="internal">
        <lane id=":305641880_1_0" index="0" disallow="tram rail_urban rail rail_electric rail_fast ship" speed="19.45" length="14.50" shape="953.42,511.97 956.85,526.00"/>
        <lane id=":305641880_1_1" index="1" disallow="tram rail_urban rail rail_electric rail_fast ship" speed="19.45" length="14.50" shape="950.31,512.71 953.75,526.79"/>
        <lane id=":305641880_1_2" index="2" disallow="tram rail_urban rail rail_electric rail_fast ship" speed="19.45" length="14.50" shape="947.19,513.44 950.65,527.58"/>
    </edge>
    <edge id=":305641880_4" function="internal">
        <lane id=":305641880_4_0" index="0" disallow="tram rail_urban rail rail_electric rail_fast ship" speed="22.22" length="17.86" shape="943.04,520.45 960.16,516.08"/>
        <lane id=":305641880_4_1" index="1" disallow="tram rail_urban rail rail_electric rail_fast ship" speed="22.22" length="17.86" shape="943.04,520.45 948.28,519.61 951.99,519.79 955.70,519.99 960.94,519.18"/>
    </edge>
    <edge id=":305641880_6" function="internal">
        <lane id=":305641880_6_0" index="0" disallow="tram rail_urban rail rail_electric rail_fast ship" speed="8.66" length="16.87" shape="943.04,520.45 948.26,519.67 952.31,520.33 955.17,522.44 956.85,526.00"/>
        <lane id=":305641880_6_1" index="1" disallow="tram rail_urban rail rail_electric rail_fast ship" speed="7.32" length="11.73" shape="943.84,523.55 947.66,522.92 950.58,523.25 952.61,524.54 953.75,526.79"/>
        <lane id=":305641880_6_2" index="2" disallow="tram rail_urban rail rail_electric rail_fast ship" speed="6.50" length="9.03" shape="943.84,523.55 946.30,523.27 948.26,523.85 949.71,525.29 950.65,527.58"/>
    </edge>
    <edge id=":305701204_0" function="internal">
        <lane id=":305701204_0_0" index="0" disallow="tram rail_urban rail rail_electric rail_fast ship" speed="7.37" length="12.11" shape="816.90,632.22 815.78,629.68 813.76,628.17 810.84,627.69 807.02,628.24"/>
    </edge>
    <edge id=":305701204_1" function="internal">
        <lane id=":305701204_1_0" index="0" disallow="tram rail_urban rail rail_electric rail_fast ship" speed="22.22" length="13.86" shape="816.90,632.22 815.54,628.38 813.87,626.02 812.17,623.66 810.71,619.85"/>
        <lane id=":305701204_1_1" index="1" disallow="tram rail_urban rail rail_electric rail_fast ship" speed="22.22" length="13.86" shape="820.03,631.53 818.66,627.67 816.99,625.29 815.28,622.92 813.82,619.08"/>
        <lane id=":305701204_1_2" index="2" disallow="tram rail_urban rail rail_electric rail_fast ship" speed="22.22" length="13.86" shape="820.03,631.53 816.92,618.31"/>
    </edge>
    <edge id=":305701204_4" function="internal">
        <lane id=":305701204_4_0" index="0" disallow="tram rail_urban rail rail_electric rail_fast ship" speed="19.45" length="20.89" shape="827.61,624.70 807.02,628.24"/>
    </edge>
    <edge id=":305701204_5" function="internal">
        <lane id=":305701204_5_0" index="0" disallow="tram rail_urban rail rail_electric rail_fast ship" speed="7.31" length="11.74" shape="826.81,621.60 822.99,622.21 820.07,621.87 818.05,620.57 816.92,618.31"/>
        <lane id=":305701204_5_1" index="1" disallow="tram rail_urban rail rail_electric rail_fast ship" speed="6.49" length="9.03" shape="826.81,621.60 824.35,621.87 822.40,621.28 820.96,619.84 820.03,617.54"/>
    </edge>
    <edge id=":305701206_0" function="internal">
        <lane id=":305701206_0_0" index="0" disallow="tram rail_urban rail rail_electric rail_fast ship" speed="7.00" length="10.45" shape="977.38,586.45 974.41,587.54 972.47,589.11 971.54,591.16 971.64,593.69"/>
    </edge>
    <edge id=":305701206_1" function="internal">
        <lane id=":305701206_1_0" index="0" disallow="tram rail_urban rail rail_electric rail_fast ship" speed="19.45" length="17.37" shape="977.38,586.45 960.57,590.70"/>
        <lane id=":305701206_1_1" index="1" disallow="tram rail_urban rail rail_electric rail_fast ship" speed="19.45" length="17.37" shape="976.63,583.34 959.76,587.61"/>
    </edge>
    <edge id=":305701206_3" function="internal">
        <lane id=":305701206_3_0" index="0" disallow="tram rail_urban rail rail_electric rail_fast ship" speed="19.45" length="14.52" shape="969.99,579.27 970.73,583.51 970.86,586.47 970.96,589.44 971.64,593.69"/>
        <lane id=":305701206_3_1" index="1" disallow="tram rail_urban rail rail_electric rail_fast ship" speed="19.45" length="14.52" shape="966.87,580.01 967.61,584.23 967.74,587.18 967.84,590.14 968.52,594.38"/>
    </edge>
    <edge id=":305701206_5" function="internal">
        <lane id=":305701206_5_0" index="0" disallow="tram rail_urban rail rail_electric rail_fast ship" speed="8.04" length="14.08" shape="966.87,580.01 967.24,583.87 966.31,586.94 964.09,589.22 960.57,590.70"/>
        <lane id=":305701206_5_1" index="1" disallow="tram rail_urban rail rail_electric rail_fast ship" speed="6.55" length="9.01" shape="963.76,580.75 964.00,583.23 963.41,585.20 962.00,586.66 959.76,587.61"/>
    </edge>
    <edge id=":305701257_0" function="internal">
        <lane id=":305701257_0_0" index="0" disallow="tram rail_urban rail rail_electric rail_fast ship" speed="16.67" length="0.30" shape="383.75,688.68 384.00,688.62"/>
        <lane id=":305701257_0_1" index="1" disallow="tram rail_urban rail rail_electric rail_fast ship" speed="16.67" length="0.30" shape="384.51,691.79 384.78,691.72"/>
        <lane id=":305701257_0_2" index="2" disallow="tram rail_urban rail rail_electric rail_fast ship" speed="16.67" length="0.30" shape="385.27,694.90 385.57,694.82"/>
        <lane id=":305701257_0_3" index="3" disallow="tram rail_urban rail rail_electric rail_fast ship" speed="16.67" length="0.30" shape="386.02,698.01 386.35,697.93"/>
    </edge>
    <edge id=":305701265_0" function="internal">
        <lane id=":305701265_0_0" index="0" disallow="tram rail_urban rail rail_electric rail_fast ship" speed="16.67" length="0.30" shape="585.38,637.75 585.68,637.68"/>
        <lane id=":305701265_0_1" index="1" disallow="tram rail_urban rail rail_electric rail_fast ship" speed="16.67" length="0.30" shape="586.16,640.86 586.46,640.78"/>
        <lane id=":305701265_0_2" index="2" disallow="tram rail_urban rail rail_electric rail_fast ship" speed="16.67" length="0.30" shape="586.95,643.96 587.23,643.89"/>
        <lane id=":305701265_0_3" index="3" disallow="tram rail_urban rail rail_electric rail_fast ship" speed="16.67" length="0.30" shape="587.73,647.06 588.01,646.99"/>
    </edge>
    <edge id=":305701269_0" function="internal">
        <lane id=":305701269_0_0" index="0" allow="taxi bus" speed="16.67" length="20.74" shape="973.64,563.26 953.47,568.25"/>
        <lane id=":305701269_0_1" index="1" disallow="tram rail_urban rail rail_electric rail_fast ship" speed="16.67" length="20.74" shape="972.86,560.15 952.71,565.14"/>
        <lane id=":305701269_0_2" index="2" disallow="tram rail_urban rail rail_electric rail_fast ship" speed="16.67" length="20.74" shape="972.08,557.05 951.96,562.03"/>
        <lane id=":305701269_0_3" index="3" disallow="tram rail_urban rail rail_electric rail_fast ship" speed="16.67" length="20.74" shape="971.29,553.95 951.20,558.92"/>
    </edge>
    <edge id=":305701269_4" function="internal">
        <lane id=":305701269_4_0" index="0" disallow="tram rail_urban rail rail_electric rail_fast ship" speed="22.22" length="15.99" shape="965.75,554.65 966.63,559.31 966.85,562.57 967.06,565.83 967.91,570.49"/>
        <lane id=":305701269_4_1" index="1" disallow="tram rail_urban rail rail_electric rail_fast ship" speed="22.22" length="15.99" shape="962.64,555.42 963.52,560.06 963.74,563.32 963.95,566.57 964.79,571.23"/>
        <lane id=":305701269_4_2" index="2" disallow="tram rail_urban rail rail_electric rail_fast ship" speed="22.22" length="15.99" shape="959.53,556.18 960.41,560.82 960.63,564.07 960.84,567.32 961.68,571.97"/>
    </edge>
    <edge id=":305701269_7" function="internal">
        <lane id=":305701269_7_0" index="0" disallow="tram rail_urban rail rail_electric rail_fast ship" speed="6.04" length="7.66" shape="956.43,556.94 956.49,558.68 955.77,560.10 954.26,561.22 951.96,562.03"/>
        <lane id=":305701269_7_1" index="1" disallow="tram rail_urban rail rail_electric rail_fast ship" speed="5.33" length="5.73" shape="956.43,556.94 955.85,557.63 954.27,558.21 952.46,558.65 951.20,558.92"/>
    </edge>
    <edge id=":305767012_0" function="internal">
        <lane id=":305767012_0_0" index="0" allow="taxi bus" speed="16.67" length="0.30" shape="1388.80,458.79 1388.48,458.87"/>
        <lane id=":305767012_0_1" index="1" disallow="tram rail_urban rail rail_electric rail_fast ship" speed="16.67" length="0.30" shape="1388.00,455.69 1387.70,455.77"/>
        <lane id=":305767012_0_2" index="2" disallow="tram rail_urban rail rail_electric rail_fast ship" speed="16.67" length="0.30" shape="1387.19,452.59 1386.92,452.66"/>
        <lane id=":305767012_0_3" index="3" disallow="tram rail_urban rail rail_electric rail_fast ship" speed="16.67" length="0.30" shape="1386.39,449.50 1386.14,449.56"/>
    </edge>
    <edge id=":3300107490_0" function="internal">
        <lane id=":3300107490_0_0" index="0" disallow="tram rail_urban rail rail_electric rail_fast ship" speed="16.67" length="0.29" shape="1051.30,916.34 1051.38,916.64"/>
        <lane id=":3300107490_0_1" index="1" disallow="tram rail_urban rail rail_electric rail_fast ship" speed="16.67" length="0.29" shape="1048.20,917.15 1048.27,917.42"/>
    </edge>
    <edge id=":3300107508_0" function="internal">
        <lane id=":3300107508_0_0" index="0" disallow="tram rail_urban rail rail_electric rail_fast ship" speed="16.67" length="0.29" shape="1063.03,963.24 1063.10,963.51"/>
        <lane id=":3300107508_0_1" index="1" disallow="tram rail_urban rail rail_electric rail_fast ship" speed="16.67" length="0.29" shape="1059.92,964.02 1060.00,964.32"/>
    </edge>
    <edge id=":3303590553_0" function="internal">
        <lane id=":3303590553_0_0" index="0" disallow="tram rail_urban rail rail_electric rail_fast ship" speed="22.22" length="0.29" shape="840.06,847.27 840.19,846.99"/>
        <lane id=":3303590553_0_1" index="1" disallow="tram rail_urban rail rail_electric rail_fast ship" speed="22.22" length="0.29" shape="842.98,848.59 843.09,848.35"/>
    </edge>
    <edge id=":3329602165_0" function="internal">