<routes>
<!--
Маршруты из одного edge, на котором стоит детектор.
Дальше c этих edge перераспределяю при помощи rerouter 
-->
<route id="r_10330" edges="162959647#1 162959647#2" color="red"/>
<route id="r_101126" edges="408298891#0 408298891#1 408298891#2 456567778 27849853" color="red"/>
<route id="r_101122" edges="135733465 146940881 627999455 27849851" color="red"/>
<route id="r_15385" edges="236838900#0 236838900#1 236838900#2 236838900#3 236838900#4 236838900#5 236838900#6 146940895 162258623#0" color="red"/>
<!--
Маршруты из одного edge, на котором стоит не детектор.
Дальше c этих edge перераспределяю при помощи rerouter 
-->
<route id="r_101126_par" edges="408322117#6" color="red"/>
<route id="r_101122_par" edges="146940890#3" color="red"/>
<!--
flows для edges с детекторами
-->
<flow id="flow_10330_0_300" route="r_10330" begin="0" end="300" vehsPerHour="132.0" departSpeed="max" departPos="base" departLane="best"/> 
<flow id="flow_101126_0_300" route="r_101126" begin="0" end="300" vehsPerHour="1704" departSpeed="max" departPos="base" departLane="best"/> 
<flow id="flow_101122_0_300" route="r_101122" begin="0" end="300" vehsPerHour="1572" departSpeed="max" departPos="base" departLane="best"/> 
<flow id="flow_15385_0_300" route="r_15385" begin="0" end="300" vehsPerHour="120.0" departSpeed="max" departPos="base" departLane="best"/> 
<flow id="flow_101126_par_0_300" route="r_101126_par" begin="0" end="300" vehsPerHour="213" departSpeed="max" departPos="base" departLane="best"/> 
<flow id="flow_101122_par_0_300" route="r_101122_par" begin="0" end="300" vehsPerHour="196" departSpeed="max" departPos="base" departLane="best"/> 
<flow id="flow_10330_300_600" route="r_10330" begin="300" end="600" vehsPerHour="144.0" departSpeed="max" departPos="base" departLane="best"/> 
<flow id="flow_101126_300_600" route="r_101126" begin="300" end="600" vehsPerHour="1788" departSpeed="max" departPos="base" departLane="best"/> 
<flow id="flow_101122_300_600" route="r_101122" begin="300" end="600" vehsPerHour="1488" departSpeed="max" departPos="base" departLane="best"/> 
<flow id="flow_15385_300_600" route="r_15385" begin="300" end="600" vehsPerHour="348.0" departSpeed="max" departPos="base" departLane="best"/> 
<flow id="flow_101126_par_300_600" route="r_101126_par" begin="300" end="600" vehsPerHour="223" departSpeed="max" departPos="base" departLane="best"/> 
<flow id="flow_101122_par_300_600" route="r_101122_par" begin="300" end="600" vehsPerHour="186" departSpeed="max" departPos="base" departLane="best"/> 
<flow id="flow_10330_600_900" route="r_10330" begin="600" end="900" vehsPerHour="108.0" departSpeed="max" departPos="base" departLane="best"/> 
<flow id="flow_101126_600_900" route="r_101126" begin="600" end="900" vehsPerHour="1512" departSpeed="max" departPos="base" departLane="best"/> 
<flow id="flow_101122_600_900" route="r_101122" begin="600" end="900" vehsPerHour="1536" departSpeed="max" departPos="base" departLane="best"/> 
<flow id="flow_15385_600_900" route="r_15385" begin="600" end="900" vehsPerHour="108.0" departSpeed="max" departPos="base" departLane="best"/> 
<flow id="flow_101126_par_600_900" route="r_101126_par" begin="600" end="900" vehsPerHour="189" departSpeed="max" departPos="base" departLane="best"/> 
<flow id="flow_101122_par_600_900" route="r_101122_par" begin="600" end="900" vehsPerHour="192" departSpeed="max" departPos="base" departLane="best"/> 
<flow id="flow_10330_900_1200" route="r_10330" begin="900" end="1200" vehsPerHour="144.0" departSpeed="max" departPos="base" departLane="best"/> 
<flow id="flow_101126_900_1200" route="r_101126" begin="900" end="1200" vehsPerHour="1596" departSpeed="max" departPos="base" departLane="best"/> 
<flow id="flow_101122_900_1200" route="r_101122" begin="900" end="1200" vehsPerHour="1356" departSpeed="max" departPos="base" departLane="best"/> 
<flow id="flow_15385_900_1200" route="r_15385" begin="900" end="1200" vehsPerHour="168.0" departSpeed="max" departPos="base" departLane="best"/> 
<flow id="flow_101126_par_900_1200" route="r_101126_par" begin="900" end="1200" vehsPerHour="199" departSpeed="max" departPos="base" departLane="best"/> 
<flow id="flow_101122_par_900_1200" route="r_101122_par" begin="900" end="1200" vehsPerHour="169" departSpeed="max" departPos="base" departLane="best"/> 
<flow id="flow_10330_1200_1500" route="r_10330" begin="1200" end="1500" vehsPerHour="108.0" departSpeed="max" departPos="base" departLane="best"/> 
<flow id="flow_101126_1200_1500" route="r_101126" begin="1200" end="1500" vehsPerHour="1584" departSpeed="max" departPos="base" departLane="best"/> 
<flow id="flow_101122_1200_1500" route="r_101122" begin="1200" end="1500" vehsPerHour="1212" departSpeed="max" departPos="base" departLane="best"/> 
<flow id="flow_15385_1200_1500" route="r_15385" begin="1200" end="1500" vehsPerHour="72.0" departSpeed="max" departPos="base" departLane="best"/> 
<flow id="flow_101126_par_1200_1500" route="r_101126_par" begin="1200" end="1500" vehsPerHour="198" departSpeed="max" departPos="base" departLane="best"/> 
<flow id="flow_101122_par_1200_1500" route="r_101122_par" begin="1200" end="1500" vehsPerHour="151" departSpeed="max" departPos="base" departLane="best"/> 
<flow id="flow_10330_1500_1800" route="r_10330" begin="1500" end="1800" vehsPerHour="108.0" departSpeed="max" departPos="base" departLane="best"/> 
<flow id="flow_101126_1500_1800" route="r_101126" begin="1500" end="1800" vehsPerHour="1428" departSpeed="max" departPos="base" departLane="best"/> 
<flow id="flow_101122_1500_1800" route="r_101122" begin="1500" end="1800" vehsPerHour="1380" departSpeed="max" departPos="base" departLane="best"/> 
<flow id="flow_15385_1500_1800" route="r_15385" begin="1500" end="1800" vehsPerHour="216.0" departSpeed="max" departPos="base" departLane="best"/> 
<flow id="flow_101126_par_1500_1800" route="r_101126_par" begin="1500" end="1800" vehsPerHour="178" departSpeed="max" departPos="base" departLane="best"/> 
<flow id="flow_101122_par_1500_1800" route="r_101122_par" begin="1500" end="1800" vehsPerHour="172" departSpeed="max" departPos="base" departLane="best"/> 
<flow id="flow_10330_1800_2100" route="r_10330" begin="1800" end="2100" vehsPerHour="72.0" departSpeed="max" departPos="base" departLane="best"/> 
<flow id="flow_101126_1800_2100" route="r_101126" begin="1800" end="2100" vehsPerHour="1548" departSpeed="max" departPos="base" departLane="best"/> 
<flow id="flow_101122_1800_2100" route="r_101122" begin="1800" end="2100" vehsPerHour="1296" departSpeed="max" departPos="base" departLane="best"/> 
<flow id="flow_15385_1800_2100" route="r_15385" begin="1800" end="2100" vehsPerHour="228.0" departSpeed="max" departPos="base" departLane="best"/> 
<flow id="flow_101126_par_1800_2100" route="r_101126_par" begin="1800" end="2100" vehsPerHour="193" departSpeed="max" departPos="base" departLane="best"/> 
<flow id="flow_101122_par_1800_2100" route="r_101122_par" begin="1800" end="2100" vehsPerHour="162" departSpeed="max" departPos="base" departLane="best"/> 
<flow id="flow_10330_2100_2400" route="r_10330" begin="2100" end="2400" vehsPerHour="96.0" departSpeed="max" departPos="base" departLane="best"/> 
<flow id="flow_101126_2100_2400" route="r_101126" begin="2100" end="2400" vehsPerHour="1380" departSpeed="max" departPos="base" departLane="best"/> 
<flow id="flow_101122_2100_2400" route="r_101122" begin="2100" end="2400" vehsPerHour="1380" departSpeed="max" departPos="base" departLane="best"/> 
<flow id="flow_15385_2100_2400" route="r_15385" begin="2100" end="2400" vehsPerHour="144.0" departSpeed="max" departPos="base" departLane="best"/> 
<flow id="flow_101126_par_2100_2400" route="r_101126_par" begin="2100" end="2400" vehsPerHour="172" departSpeed="max" departPos="base" departLane="best"/> 
<flow id="flow_101122_par_2100_2400" route="r_101122_par" begin="2100" end="2400" vehsPerHour="172" departSpeed="max" departPos="base" departLane="best"/> 
<flow id="flow_10330_2400_2700" route="r_10330" begin="2400" end="2700" vehsPerHour="36.0" departSpeed="max" departPos="base" departLane="best"/> 
<flow id="flow_101126_2400_2700" route="r_101126" begin="2400" end="2700" vehsPerHour="1368" departSpeed="max" departPos="base" departLane="best"/> 
<flow id="flow_101122_2400_2700" route="r_101122" begin="2400" end="2700" vehsPerHour="1128" departSpeed="max" departPos="base" departLane="best"/> 
<flow id="flow_15385_2400_2700" route="r_15385" begin="2400" end="2700" vehsPerHour="60.0" departSpeed="max" departPos="base" departLane="best"/> 
<flow id="flow_101126_par_2400_2700" route="r_101126_par" begin="2400" end="2700" vehsPerHour="171" departSpeed="max" departPos="base" departLane="best"/> 
<flow id="flow_101122_par_2400_2700" route="r_101122_par" begin="2400" end="2700" vehsPerHour="141" departSpeed="max" departPos="base" departLane="best"/> 
<flow id="flow_10330_2700_3000" route="r_10330" begin="2700" end="3000" vehsPerHour="84.0" departSpeed="max" departPos="base" departLane="best"/> 
<flow id="flow_101126_2700_3000" route="r_101126" begin="2700" end="3000" vehsPerHour="1368" departSpeed="max" departPos="base" departLane="best"/> 
<flow id="flow_101122_2700_3000" route="r_101122" begin="2700" end="3000" vehsPerHour="1392" departSpeed="max" departPos="base" departLane="best"/> 
<flow id="flow_15385_2700_3000" route="r_15385" begin="2700" end="3000" vehsPerHour="204.0" departSpeed="max" departPos="base" departLane="best"/> 
<flow id="flow_101126_par_2700_3000" route="r_101126_par" begin="2700" end="3000" vehsPerHour="171" departSpeed="max" departPos="base" departLane="best"/> 
<flow id="flow_101122_par_2700_3000" route="r_101122_par" begin="2700" end="3000" vehsPerHour="174" departSpeed="max" departPos="base" departLane="best"/> 
<flow id="flow_10330_3000_3300" route="r_10330" begin="3000" end="3300" vehsPerHour="72.0" departSpeed="max" departPos="base" departLane="best"/> 
<flow id="flow_101126_3000_3300" route="r_101126" begin="3000" end="3300" vehsPerHour="1332" departSpeed="max" departPos="base" departLane="best"/> 
<flow id="flow_101122_3000_3300" route="r_101122" begin="3000" end="3300" vehsPerHour="948" departSpeed="max" departPos="base" departLane="best"/> 
<flow id="flow_15385_3000_3300" route="r_15385" begin="3000" end="3300" vehsPerHour="168.0" departSpeed="max" departPos="base" departLane="best"/> 
<flow id="flow_101126_par_3000_3300" route="r_101126_par" begin="3000" end="3300" vehsPerHour="166" departSpeed="max" departPos="base" departLane="best"/> 
<flow id="flow_101122_par_3000_3300" route="r_101122_par" begin="3000" end="3300" vehsPerHour="118" departSpeed="max" departPos="base" departLane="best"/> 
<flow id="flow_10330_3300_3600" route="r_10330" begin="3300" end="3600" vehsPerHour="132.0" departSpeed="max" departPos="base" departLane="best"/> 
<flow id="flow_101126_3300_3600" route="r_101126" begin="3300" end="3600" vehsPerHour="1296" departSpeed="max" departPos="base" departLane="best"/> 
<flow id="flow_101122_3300_3600" route="r_101122" begin="3300" end="3600" vehsPerHour="1032" departSpeed="max" departPos="base" departLane="best"/> 
<flow id="flow_15385_3300_3600" route="r_15385" begin="3300" end="3600" vehsPerHour="132.0" departSpeed="max" departPos="base" departLane="best"/> 
<flow id="flow_101126_par_3300_3600" route="r_101126_par" begin="3300" end="3600" vehsPerHour="162" departSpeed="max" departPos="base" departLane="best"/> 
<flow id="flow_101122_par_3300_3600" route="r_101122_par" begin="3300" end="3600" vehsPerHour="129" departSpeed="max" departPos="base" departLane="best"/> 
<flow id="flow_10330_3600_3900" route="r_10330" begin="3600" end="3900" vehsPerHour="60.0" departSpeed="max" departPos="base" departLane="best"/> 
<flow id="flow_101126_3600_3900" route="r_101126" begin="3600" end="3900" vehsPerHour="1200" departSpeed="max" departPos="base" departLane="best"/> 
<flow id="flow_101122_3600_3900" route="r_101122" begin="3600" end="3900" vehsPerHour="840" departSpeed="max" departPos="base" departLane="best"/> 
<flow id="flow_15385_3600_3900" route="r_15385" begin="3600" end="3900" vehsPerHour="132.0" departSpeed="max" departPos="base" departLane="best"/> 
<flow id="flow_101126_par_3600_3900" route="r_101126_par" begin="3600" end="3900" vehsPerHour="150" departSpeed="max" departPos="base" departLane="best"/> 
<flow id="flow_101122_par_3600_3900" route="r_101122_par" begin="3600" end="3900" vehsPerHour="105" departSpeed="max" departPos="base" departLane="best"/> 
<flow id="flow_10330_3900_4200" route="r_10330" begin="3900" end="4200" vehsPerHour="72.0" departSpeed="max" departPos="base" departLane="best"/> 
<flow id="flow_101126_3900_4200" route="r_101126" begin="3900" end="4200" vehsPerHour="1260" departSpeed="max" departPos="base" departLane="best"/> 
<flow id="flow_101122_3900_4200" route="r_101122" begin="3900" end="4200" vehsPerHour="840" departSpeed="max" departPos="base" departLane="best"/> 
<flow id="flow_15385_3900_4200" route="r_15385" begin="3900" end="4200" vehsPerHour="144.0" departSpeed="max" departPos="base" departLane="best"/> 
<flow id="flow_101126_par_3900_4200" route="r_101126_par" begin="3900" end="4200" vehsPerHour="157" departSpeed="max" departPos="base" departLane="best"/> 
<flow id="flow_101122_par_3900_4200" route="r_101122_par" begin="3900" end="4200" vehsPerHour="105" departSpeed="max" departPos="base" departLane="best"/> 
<flow id="flow_10330_4200_4500" route="r_10330" begin="4200" end="4500" vehsPerHour="72.0" departSpeed="max" departPos="base" departLane="best"/> 
<flow id="flow_101126_4200_4500" route="r_101126" begin="4200" end="4500" vehsPerHour="1056" departSpeed="max" departPos="base" departLane="best"/> 
<flow id="flow_101122_4200_4500" route="r_101122" begin="4200" end="4500" vehsPerHour="924" departSpeed="max" departPos="base" departLane="best"/> 
<flow id="flow_15385_4200_4500" route="r_15385" begin="4200" end="4500" vehsPerHour="84.0" departSpeed="max" departPos="base" departLane="best"/> 
<flow id="flow_101126_par_4200_4500" route="r_101126_par" begin="4200" end="4500" vehsPerHour="132" departSpeed="max" departPos="base" departLane="best"/> 
<flow id="flow_101122_par_4200_4500" route="r_101122_par" begin="4200" end="4500" vehsPerHour="115" departSpeed="max" departPos="base" departLane="best"/> 
<flow id="flow_10330_4500_4800" route="r_10330" begin="4500" end="4800" vehsPerHour="36.0" departSpeed="max" departPos="base" departLane="best"/> 
<flow id="flow_101126_4500_4800" route="r_101126" begin="4500" end="4800" vehsPerHour="1020" departSpeed="max" departPos="base" departLane="best"/> 
<flow id="flow_101122_4500_4800" route="r_101122" begin="4500" end="4800" vehsPerHour="1164" departSpeed="max" departPos="base" departLane="best"/> 
<flow id="flow_15385_4500_4800" route="r_15385" begin="4500" end="4800" vehsPerHour="72.0" departSpeed="max" departPos="base" departLane="best"/> 
<flow id="flow_101126_par_4500_4800" route="r_101126_par" begin="4500" end="4800" vehsPerHour="127" departSpeed="max" departPos="base" departLane="best"/> 
<flow id="flow_101122_par_4500_4800" route="r_101122_par" begin="4500" end="4800" vehsPerHour="145" departSpeed="max" departPos="base" departLane="best"/> 
<flow id="flow_10330_4800_5100" route="r_10330" begin="4800" end="5100" vehsPerHour="72.0" departSpeed="max" departPos="base" departLane="best"/> 
<flow id="flow_101126_4800_5100" route="r_101126" begin="4800" end="5100" vehsPerHour="1140" departSpeed="max" departPos="base" departLane="best"/> 
<flow id="flow_101122_4800_5100" route="r_101122" begin="4800" end="5100" vehsPerHour="720" departSpeed="max" departPos="base" departLane="best"/> 
<flow id="flow_15385_4800_5100" route="r_15385" begin="4800" end="5100" vehsPerHour="108.0" departSpeed="max" departPos="base" departLane="best"/> 
<flow id="flow_101126_par_4800_5100" route="r_101126_par" begin="4800" end="5100" vehsPerHour="142" departSpeed="max" departPos="base" departLane="best"/> 
<flow id="flow_101122_par_4800_5100" route="r_101122_par" begin="4800" end="5100" vehsPerHour="90" departSpeed="max" departPos="base" departLane="best"/> 
<flow id="flow_10330_5100_5400" route="r_10330" begin="5100" end="5400" vehsPerHour="120.0" departSpeed="max" departPos="base" departLane="best"/> 
<flow id="flow_101126_5100_5400" route="r_101126" begin="5100" end="5400" vehsPerHour="1020" departSpeed="max" departPos="base" departLane="best"/> 
<flow id="flow_101122_5100_5400" route="r_101122" begin="5100" end="5400" vehsPerHour="984" departSpeed="max" departPos="base" departLane="best"/> 
<flow id="flow_15385_5100_5400" route="r_15385" begin="5100" end="5400" vehsPerHour="96.0" departSpeed="max" departPos="base" departLane="best"/> 
<flow id="flow_101126_par_5100_5400" route="r_101126_par" begin="5100" end="5400" vehsPerHour="127" departSpeed="max" departPos="base" departLane="best"/> 
<flow id="flow_101122_par_5100_5400" route="r_101122_par" begin="5100" end="5400" vehsPerHour="123" departSpeed="max" departPos="base" departLane="best"/> 
<flow id="flow_10330_5400_5700" route="r_10330" begin="5400" end="5700" vehsPerHour="48.0" departSpeed="max" departPos="base" departLane="best"/> 
<flow id="flow_101126_5400_5700" route="r_101126" begin="5400" end="5700" vehsPerHour="1008" departSpeed="max" departPos="base" departLane="best"/> 
<flow id="flow_101122_5400_5700" route="r_101122" begin="5400" end="5700" vehsPerHour="996" departSpeed="max" departPos="base" departLane="best"/> 
<flow id="flow_15385_5400_5700" route="r_15385" begin="5400" end="5700" vehsPerHour="36.0" departSpeed="max" departPos="base" departLane="best"/> 
<flow id="flow_101126_par_5400_5700" route="r_101126_par" begin="5400" end="5700" vehsPerHour="126" departSpeed="max" departPos="base" departLane="best"/> 
<flow id="flow_101122_par_5400_5700" route="r_101122_par" begin="5400" end="5700" vehsPerHour="124" departSpeed="max" departPos="base" departLane="best"/> 
<flow id="flow_10330_5700_6000" route="r_10330" begin="5700" end="6000" vehsPerHour="48.0" departSpeed="max" departPos="base" departLane="best"/> 
<flow id="flow_101126_5700_6000" route="r_101126" begin="5700" end="6000" vehsPerHour="1116" departSpeed="max" departPos="base" departLane="best"/> 
<flow id="flow_101122_5700_6000" route="r_101122" begin="5700" end="6000" vehsPerHour="852" departSpeed="max" departPos="base" departLane="best"/> 
<flow id="flow_15385_5700_6000" route="r_15385" begin="5700" end="6000" vehsPerHour="60.0" departSpeed="max" departPos="base" departLane="best"/> 
<flow id="flow_101126_par_5700_6000" route="r_101126_par" begin="5700" end="6000" vehsPerHour="139" departSpeed="max" departPos="base" departLane="best"/> 
<flow id="flow_101122_par_5700_6000" route="r_101122_par" begin="5700" end="6000" vehsPerHour="106" departSpeed="max" departPos="base" departLane="best"/> 
<flow id="flow_10330_6000_6300" route="r_10330" begin="6000" end="6300" vehsPerHour="48.0" departSpeed="max" departPos="base" departLane="best"/> 
<flow id="flow_101126_6000_6300" route="r_101126" begin="6000" end="6300" vehsPerHour="960" departSpeed="max" departPos="base" departLane="best"/> 
<flow id="flow_101122_6000_6300" route="r_101122" begin="6000" end="6300" vehsPerHour="852" departSpeed="max" departPos="base" departLane="best"/> 
<flow id="flow_15385_6000_6300" route="r_15385" begin="6000" end="6300" vehsPerHour="72.0" departSpeed="max" departPos="base" departLane="best"/> 
<flow id="flow_101126_par_6000_6300" route="r_101126_par" begin="6000" end="6300" vehsPerHour="120" departSpeed="max" departPos="base" departLane="best"/> 
<flow id="flow_101122_par_6000_6300" route="r_101122_par" begin="6000" end="6300" vehsPerHour="106" departSpeed="max" departPos="base" departLane="best"/> 
<flow id="flow_10330_6300_6600" route="r_10330" begin="6300" end="6600" vehsPerHour="60.0" departSpeed="max" departPos="base" departLane="best"/> 
<flow id="flow_101126_6300_6600" route="r_101126" begin="6300" end="6600" vehsPerHour="936" departSpeed="max" departPos="base" departLane="best"/> 
<flow id="flow_101122_6300_6600" route="r_101122" begin="6300" end="6600" vehsPerHour="840" departSpeed="max" departPos="base" departLane="best"/> 
<flow id="flow_15385_6300_6600" route="r_15385" begin="6300" end="6600" vehsPerHour="60.0" departSpeed="max" departPos="base" departLane="best"/> 
<flow id="flow_101126_par_6300_6600" route="r_101126_par" begin="6300" end="6600" vehsPerHour="117" departSpeed="max" departPos="base" departLane="best"/> 
<flow id="flow_101122_par_6300_6600" route="r_101122_par" begin="6300" end="6600" vehsPerHour="105" departSpeed="max" departPos="base" departLane="best"/> 
<flow id="flow_10330_6600_6900" route="r_10330" begin="6600" end="6900" vehsPerHour="48.0" departSpeed="max" departPos="base" departLane="best"/> 
<flow id="flow_101126_6600_6900" route="r_101126" begin="6600" end="6900" vehsPerHour="852" departSpeed="max" departPos="base" departLane="best"/> 
<flow id="flow_101122_6600_6900" route="r_101122" begin="6600" end="6900" vehsPerHour="624" departSpeed="max" departPos="base" departLane="best"/> 
<flow id="flow_15385_6600_6900" route="r_15385" begin="6600" end="6900" vehsPerHour="108.0" departSpeed="max" departPos="base" departLane="best"/> 
<flow id="flow_101126_par_6600_6900" route="r_101126_par" begin="6600" end="6900" vehsPerHour="106" departSpeed="max" departPos="base" departLane="best"/> 
<flow id="flow_101122_par_6600_6900" route="r_101122_par" begin="6600" end="6900" vehsPerHour="78" departSpeed="max" departPos="base" departLane="best"/> 
<flow id="flow_10330_6900_7200" route="r_10330" begin="6900" end="7200" vehsPerHour="84.0" departSpeed="max" departPos="base" departLane="best"/> 
<flow id="flow_101126_6900_7200" route="r_101126" begin="6900" end="7200" vehsPerHour="840" departSpeed="max" departPos="base" departLane="best"/> 
<flow id="flow_101122_6900_7200" route="r_101122" begin="6900" end="7200" vehsPerHour="948" departSpeed="max" departPos="base" departLane="best"/> 
<flow id="flow_15385_6900_7200" route="r_15385" begin="6900" end="7200" vehsPerHour="72.0" departSpeed="max" departPos="base" departLane="best"/> 
<flow id="flow_101126_par_6900_7200" route="r_101126_par" begin="6900" end="7200" vehsPerHour="105" departSpeed="max" departPos="base" departLane="best"/> 
<flow id="flow_101122_par_6900_7200" route="r_101122_par" begin="6900" end="7200" vehsPerHour="118" departSpeed="max" departPos="base" departLane="best"/> 
<flow id="flow_10330_7200_7500" route="r_10330" begin="7200" end="7500" vehsPerHour="120.0" departSpeed="max" departPos="base" departLane="best"/> 
<flow id="flow_101126_7200_7500" route="r_101126" begin="7200" end="7500" vehsPerHour="696" departSpeed="max" departPos="base" departLane="best"/> 
<flow id="flow_101122_7200_7500" route="r_101122" begin="7200" end="7500" vehsPerHour="624" departSpeed="max" departPos="base" departLane="best"/> 
<flow id="flow_15385_7200_7500" route="r_15385" begin="7200" end="7500" vehsPerHour="36.0" departSpeed="max" departPos="base" departLane="best"/> 
<flow id="flow_101126_par_7200_7500" route="r_101126_par" begin="7200" end="7500" vehsPerHour="87" departSpeed="max" departPos="base" departLane="best"/> 
<flow id="flow_101122_par_7200_7500" route="r_101122_par" begin="7200" end="7500" vehsPerHour="78" departSpeed="max" departPos="base" departLane="best"/> 
<flow id="flow_10330_7500_7800" route="r_10330" begin="7500" end="7800" vehsPerHour="72.0" departSpeed="max" departPos="base" departLane="best"/> 
<flow id="flow_101126_7500_7800" route="r_101126" begin="7500" end="7800" vehsPerHour="708" departSpeed="max" departPos="base" departLane="best"/> 
<flow id="flow_101122_7500_7800" route="r_101122" begin="7500" end="7800" vehsPerHour="624" departSpeed="max" departPos="base" departLane="best"/> 
<flow id="flow_15385_7500_7800" route="r_15385" begin="7500" end="7800" vehsPerHour="96.0" departSpeed="max" departPos="base" departLane="best"/> 
<flow id="flow_101126_par_7500_7800" route="r_101126_par" begin="7500" end="7800" vehsPerHour="88" departSpeed="max" departPos="base" departLane="best"/> 
<flow id="flow_101122_par_7500_7800" route="r_101122_par" begin="7500" end="7800" vehsPerHour="78" departSpeed="max" departPos="base" departLane="best"/> 
<flow id="flow_10330_7800_8100" route="r_10330" begin="7800" end="8100" vehsPerHour="60.0" departSpeed="max" departPos="base" departLane="best"/> 
<flow id="flow_101126_7800_8100" route="r_101126" begin="7800" end="8100" vehsPerHour="648" departSpeed="max" departPos="base" departLane="best"/> 
<flow id="flow_101122_7800_8100" route="r_101122" begin="7800" end="8100" vehsPerHour="696" departSpeed="max" departPos="base" departLane="best"/> 
<flow id="flow_15385_7800_8100" route="r_15385" begin="7800" end="8100" vehsPerHour="84.0" departSpeed="max" departPos="base" departLane="best"/> 
<flow id="flow_101126_par_7800_8100" route="r_101126_par" begin="7800" end="8100" vehsPerHour="81" departSpeed="max" departPos="base" departLane="best"/> 
<flow id="flow_101122_par_7800_8100" route="r_101122_par" begin="7800" end="8100" vehsPerHour="87" departSpeed="max" departPos="base" departLane="best"/> 
<flow id="flow_10330_8100_8400" route="r_10330" begin="8100" end="8400" vehsPerHour="36.0" departSpeed="max" departPos="base" departLane="best"/> 
<flow id="flow_101126_8100_8400" route="r_101126" begin="8100" end="8400" vehsPerHour="768" departSpeed="max" departPos="base" departLane="best"/> 
<flow id="flow_101122_8100_8400" route="r_101122" begin="8100" end="8400" vehsPerHour="804" departSpeed="max" departPos="base" departLane="best"/> 
<flow id="flow_15385_8100_8400" route="r_15385" begin="8100" end="8400" vehsPerHour="12.0" departSpeed="max" departPos="base" departLane="best"/> 
<flow id="flow_101126_par_8100_8400" route="r_101126_par" begin="8100" end="8400" vehsPerHour="96" departSpeed="max" departPos="base" departLane="best"/> 
<flow id="flow_101122_par_8100_8400" route="r_101122_par" begin="8100" end="8400" vehsPerHour="100" departSpeed="max" departPos="base" departLane="best"/> 
<flow id="flow_10330_8400_8700" route="r_10330" begin="8400" end="8700" vehsPerHour="96.0" departSpeed="max" departPos="base" departLane="best"/> 
<flow id="flow_101126_8400_8700" route="r_101126" begin="8400" end="8700" vehsPerHour="804" departSpeed="max" departPos="base" departLane="best"/> 
<flow id="flow_101122_8400_8700" route="r_101122" begin="8400" end="8700" vehsPerHour="492" departSpeed="max" departPos="base" departLane="best"/> 
<flow id="flow_15385_8400_8700" route="r_15385" begin="8400" end="8700" vehsPerHour="72.0" departSpeed="max" departPos="base" departLane="best"/> 
<flow id="flow_101126_par_8400_8700" route="r_101126_par" begin="8400" end="8700" vehsPerHour="100" departSpeed="max" departPos="base" departLane="best"/> 
<flow id="flow_101122_par_8400_8700" route="r_101122_par" begin="8400" end="8700" vehsPerHour="61" departSpeed="max" departPos="base" departLane="best"/> 
<flow id="flow_10330_8700_9000" route="r_10330" begin="8700" end="9000" vehsPerHour="72.0" departSpeed="max" departPos="base" departLane="best"/> 
<flow id="flow_101126_8700_9000" route="r_101126" begin="8700" end="9000" vehsPerHour="672" departSpeed="max" departPos="base" departLane="best"/> 
<flow id="flow_101122_8700_9000" route="r_101122" begin="8700" end="9000" vehsPerHour="888" departSpeed="max" departPos="base" departLane="best"/> 
<flow id="flow_15385_8700_9000" route="r_15385" begin="8700" end="9000" vehsPerHour="108.0" departSpeed="max" departPos="base" departLane="best"/> 
<flow id="flow_101126_par_8700_9000" route="r_101126_par" begin="8700" end="9000" vehsPerHour="84" departSpeed="max" departPos="base" departLane="best"/> 
<flow id="flow_101122_par_8700_9000" route="r_101122_par" begin="8700" end="9000" vehsPerHour="111" departSpeed="max" departPos="base" departLane="best"/> 
<flow id="flow_10330_9000_9300" route="r_10330" begin="9000" end="9300" vehsPerHour="24.0" departSpeed="max" departPos="base" departLane="best"/> 
<flow id="flow_101126_9000_9300" route="r_101126" begin="9000" end="9300" vehsPerHour="624" departSpeed="max" departPos="base" departLane="best"/> 
<flow id="flow_101122_9000_9300" route="r_101122" begin="9000" end="9300" vehsPerHour="600" departSpeed="max" departPos="base" departLane="best"/> 
<flow id="flow_15385_9000_9300" route="r_15385" begin="9000" end="9300" vehsPerHour="84.0" departSpeed="max" departPos="base" departLane="best"/> 
<flow id="flow_101126_par_9000_9300" route="r_101126_par" begin="9000" end="9300" vehsPerHour="78" departSpeed="max" departPos="base" departLane="best"/> 
<flow id="flow_101122_par_9000_9300" route="r_101122_par" begin="9000" end="9300" vehsPerHour="75" departSpeed="max" departPos="base" departLane="best"/> 
<flow id="flow_10330_9300_9600" route="r_10330" begin="9300" end="9600" vehsPerHour="36.0" departSpeed="max" departPos="base" departLane="best"/> 
<flow id="flow_101126_9300_9600" route="r_101126" begin="9300" end="9600" vehsPerHour="660" departSpeed="max" departPos="base" departLane="best"/> 
<flow id="flow_101122_9300_9600" route="r_101122" begin="9300" end="9600" vehsPerHour="516" departSpeed="max" departPos="base" departLane="best"/> 
<flow id="flow_15385_9300_9600" route="r_15385" begin="9300" end="9600" vehsPerHour="60.0" departSpeed="max" departPos="base" departLane="best"/> 
<flow id="flow_101126_par_9300_9600" route="r_101126_par" begin="9300" end="9600" vehsPerHour="82" departSpeed="max" departPos="base" departLane="best"/> 
<flow id="flow_101122_par_9300_9600" route="r_101122_par" begin="9300" end="9600" vehsPerHour="64" departSpeed="max" departPos="base" departLane="best"/> 
<flow id="flow_10330_9600_9900" route="r_10330" begin="9600" end="9900" vehsPerHour="60.0" departSpeed="max" departPos="base" departLane="best"/> 
<flow id="flow_101126_9600_9900" route="r_101126" begin="9600" end="9900" vehsPerHour="588" departSpeed="max" departPos="base" departLane="best"/> 